
**** 11/29/20 18:35:03 ***** PSpice 16.6.0 (October 2012) ***** ID# 0 ********

 EXP-1(b) Transient Response of 3 CMOS Inverters with varying Kn(div by)Kp [29-Subhankar Karmakar] A11 DT-26112020


 ****     CIRCUIT DESCRIPTION


******************************************************************************



v1 1 0 pulse 0 5 0 2ns 2ns 8ns 20ns
v2 5 0 dc 5
m1 2 1 5 5 pmod(w=5u  l=2u)
m2 3 1 5 5 pmod(w=5u  l=2u)
m3 4 1 5 5 pmod(w=5u  l=2u)
m4 2 1 0 0 nmod(w=10u l=2u)
m5 3 1 0 0 nmod(w=5u  l=2u)
m6 4 1 0 0 nmod(w=20u l=2u)
c1 2 0 0.2pF
c2 3 0 0.2pF
c3 4 0 0.2pF
.model pmod pmos(vto=-1 lambda=0.02)
.model nmod nmos(vto= 1 lambda=0.02)
.tran 0.2ns 60ns
.probe
.end

**** 11/29/20 18:35:03 ***** PSpice 16.6.0 (October 2012) ***** ID# 0 ********

 EXP-1(b) Transient Response of 3 CMOS Inverters with varying Kn(div by)Kp [29-Subhankar Karmakar] A11 DT-26112020


 ****     MOSFET MODEL PARAMETERS


******************************************************************************




               pmod            nmod            
               PMOS            NMOS            
       LEVEL    1               1            
           L  100.000000E-06  100.000000E-06 
           W  100.000000E-06  100.000000E-06 
         VTO   -1               1            
          KP   20.000000E-06   20.000000E-06 
       GAMMA    0               0            
         PHI     .6              .6          
      LAMBDA     .02             .02         
          IS   10.000000E-15   10.000000E-15 
          JS    0               0            
          PB     .8              .8          
        PBSW     .8              .8          
          CJ    0               0            
        CJSW    0               0            
        CGSO    0               0            
        CGDO    0               0            
        CGBO    0               0            
         TOX    0               0            
          XJ    0               0            
       UCRIT   10.000000E+03   10.000000E+03 
      DIOMOD    1               1            
         VFB    0               0            
        LETA    0               0            
        WETA    0               0            
          U0    0               0            
        TEMP    0               0            
         VDD    5               5            
       XPART    0               0            


**** 11/29/20 18:35:03 ***** PSpice 16.6.0 (October 2012) ***** ID# 0 ********

 EXP-1(b) Transient Response of 3 CMOS Inverters with varying Kn(div by)Kp [29-Subhankar Karmakar] A11 DT-26112020


 ****     INITIAL TRANSIENT SOLUTION       TEMPERATURE =   27.000 DEG C


******************************************************************************



 NODE   VOLTAGE     NODE   VOLTAGE     NODE   VOLTAGE     NODE   VOLTAGE


(    1)    0.0000  (    2)    5.0000  (    3)    5.0000  (    4)    5.0000      

(    5)    5.0000  




    VOLTAGE SOURCE CURRENTS
    NAME         CURRENT

    v1           0.000E+00
    v2          -1.503E-11

    TOTAL POWER DISSIPATION   7.52E-11  WATTS



          JOB CONCLUDED

**** 11/29/20 18:35:03 ***** PSpice 16.6.0 (October 2012) ***** ID# 0 ********

 EXP-1(b) Transient Response of 3 CMOS Inverters with varying Kn(div by)Kp [29-Subhankar Karmakar] A11 DT-26112020


 ****     JOB STATISTICS SUMMARY


******************************************************************************



  Total job time (using Solver 1)   =         .02
